
     RDKit          3D

 28 27  0  0  0  0  0  0  0  0999 V2000
    2.0092    1.0891    0.0258 S   0  0  0  0  0  0  0  0  0  0  0  0
   -0.9668   -1.1849   -0.5708 O   0  0  0  0  0  0  0  0  0  0  0  0
   -3.0506    0.7053   -0.7836 O   0  0  0  0  0  0  0  0  0  0  0  0
   -5.1932   -0.9023    3.1416 O   0  0  0  0  0  0  0  0  0  0  0  0
   -4.8703    0.6931    4.7328 O   0  0  0  0  0  0  0  0  0  0  0  0
   -2.2794   -2.0884   -2.7612 O   0  0  0  0  0  0  0  0  0  0  0  0
   -1.5294   -4.1101   -3.4572 O   0  0  0  0  0  0  0  0  0  0  0  0
   -1.0498    1.3260    0.1546 N   0  0  0  0  0  0  0  0  0  0  0  0
    0.0231   -0.8978   -2.6210 N   0  0  0  0  0  0  0  0  0  0  0  0
   -5.4736    2.6245    2.8679 N   0  0  0  0  0  0  0  0  0  0  0  0
   -0.4453    1.0434   -1.1266 C   0  0  2  0  0  0  0  0  0  0  0  0
   -0.4828   -0.4018   -1.4109 C   0  0  0  0  0  0  0  0  0  0  0  0
   -2.4542    1.1205    0.2527 C   0  0  0  0  0  0  0  0  0  0  0  0
    0.8798    1.6871   -1.2525 C   0  0  0  0  0  0  0  0  0  0  0  0
   -3.2683    1.3478    1.4527 C   0  0  0  0  0  0  0  0  0  0  0  0
   -5.5446    1.2821    2.3781 C   0  0  1  0  0  0  0  0  0  0  0  0
   -4.7134    1.0524    1.1517 C   0  0  0  0  0  0  0  0  0  0  0  0
    0.0543   -2.2683   -3.0263 C   0  0  0  0  0  0  0  0  0  0  0  0
   -5.1962    0.3202    3.4317 C   0  0  0  0  0  0  0  0  0  0  0  0
   -1.3147   -2.8131   -3.0729 C   0  0  0  0  0  0  0  0  0  0  0  0
    2.3553   -0.6686   -0.2410 C   0  0  0  0  0  0  0  0  0  0  0  0
    3.0926   -0.8011   -1.5385 C   0  0  0  0  0  0  0  0  0  0  0  0
    4.3976   -0.0659   -1.5623 C   0  0  0  0  0  0  0  0  0  0  0  0
    5.3587   -0.5742   -0.5048 C   0  0  0  0  0  0  0  0  0  0  0  0
    6.6338    0.2237   -0.6203 C   0  0  0  0  0  0  0  0  0  0  0  0
    7.6348   -0.2498    0.3994 C   0  0  0  0  0  0  0  0  0  0  0  0
    7.1483   -0.1119    1.8148 C   0  0  0  0  0  0  0  0  0  0  0  0
    8.2453   -0.6240    2.7459 C   0  0  0  0  0  0  0  0  0  0  0  0
  1 14  1  0
  1 21  1  0
  2 12  2  0
  3 13  2  0
  4 19  2  0
  5 19  1  0
  6 20  2  0
  7 20  1  0
  8 11  1  0
  8 13  1  0
  9 12  1  0
  9 18  1  0
 16 10  1  1
 11 12  1  0
 11 14  1  1
 13 15  1  0
 15 17  1  0
 16 17  1  0
 16 19  1  0
 18 20  1  0
 21 22  1  0
 22 23  1  0
 23 24  1  0
 24 25  1  0
 25 26  1  0
 26 27  1  0
 27 28  1  0
M  END
$$$$
